Version 4
SHEET 1 880 680
WIRE 16 -32 -112 -32
WIRE 112 -32 16 -32
WIRE 448 -32 240 -32
WIRE -112 -16 -112 -32
WIRE 112 -16 112 -32
WIRE 240 -16 240 -32
WIRE 448 -16 448 -32
WIRE 16 48 16 -32
WIRE 32 48 16 48
WIRE 368 48 320 48
WIRE 368 64 368 48
WIRE 448 64 448 48
WIRE -112 80 -112 64
WIRE 32 144 16 144
WIRE 368 144 368 128
WIRE 368 144 320 144
WIRE 368 160 368 144
WIRE -112 192 -112 160
WIRE 368 240 320 240
WIRE -64 336 -80 336
WIRE 32 336 0 336
WIRE 352 336 320 336
WIRE 448 336 352 336
WIRE 576 336 448 336
WIRE 656 336 576 336
WIRE 752 336 656 336
WIRE 352 352 352 336
WIRE 576 352 576 336
WIRE 656 352 656 336
WIRE 752 352 752 336
WIRE -64 432 -80 432
WIRE 32 432 16 432
WIRE 352 432 352 416
WIRE 352 432 320 432
WIRE 448 432 448 416
WIRE 448 432 352 432
WIRE 448 448 448 432
WIRE 576 448 576 416
WIRE 656 448 656 416
WIRE 752 448 752 432
WIRE 176 512 176 496
WIRE 448 544 448 528
FLAG 176 512 0
FLAG -112 192 0
FLAG 448 544 0
FLAG 576 448 0
FLAG -80 432 0
FLAG -80 336 0
FLAG 16 144 0
FLAG 448 64 0
FLAG -112 -32 IN
FLAG 752 336 OUT
FLAG 752 448 0
FLAG 656 448 0
SYMBOL PowerProducts\\LT8631 176 240 R0
SYMATTR InstName U1
SYMBOL voltage -112 -32 R0
WINDOW 123 0 0 Left 0
WINDOW 39 0 0 Left 0
SYMATTR InstName V1
SYMATTR Value 12
SYMBOL cap 352 64 R0
SYMATTR InstName C1
SYMATTR Value .1µ
SYMBOL ind 352 144 R0
SYMATTR InstName L1
SYMATTR Value 22µ
SYMATTR SpiceLine Rser=10m
SYMBOL res 432 320 R0
SYMATTR InstName R1
SYMATTR Value 1Meg
SYMBOL cap 336 352 R0
SYMATTR InstName C2
SYMATTR Value 22p
SYMBOL res 432 432 R0
SYMATTR InstName R2
SYMATTR Value 191K
SYMBOL cap 560 352 R0
SYMATTR InstName C3
SYMATTR Value 47µ
SYMATTR SpiceLine Rser=5m
SYMBOL res 32 416 R90
WINDOW 0 0 56 VBottom 2
WINDOW 3 32 56 VTop 2
SYMATTR InstName R3
SYMATTR Value 25.5K
SYMBOL cap 0 320 R90
WINDOW 0 0 32 VBottom 2
WINDOW 3 32 32 VTop 2
SYMATTR InstName C4
SYMATTR Value .005µ
SYMBOL cap 432 -16 R0
SYMATTR InstName C5
SYMATTR Value 2.2µ
SYMBOL res 736 336 R0
SYMATTR InstName Rload
SYMATTR Value {5/0.1}
SYMBOL cap 640 352 R0
SYMATTR InstName C6
SYMATTR Value 47µ
SYMATTR SpiceLine Rser=5m
SYMBOL voltage -112 64 M0
WINDOW 123 0 0 Left 0
WINDOW 39 0 0 Left 0
SYMATTR InstName V2
SYMATTR Value PULSE(0 {100-12} 1.4m 10u 10u 2m 4m)
TEXT 616 528 Left 2 !.tran 1.8m startup
