Version 4
SHEET 1 2352 752
WIRE -96 -32 -208 -32
WIRE 16 -32 -96 -32
WIRE 112 -32 16 -32
WIRE 448 -32 240 -32
WIRE -208 -16 -208 -32
WIRE -96 -16 -96 -32
WIRE 112 -16 112 -32
WIRE 240 -16 240 -32
WIRE 448 -16 448 -32
WIRE 16 48 16 -32
WIRE 32 48 16 48
WIRE 368 48 320 48
WIRE 368 64 368 48
WIRE 448 64 448 48
WIRE -208 80 -208 64
WIRE -96 80 -96 48
WIRE 32 144 16 144
WIRE 368 144 368 128
WIRE 368 144 320 144
WIRE 368 160 368 144
WIRE 368 240 320 240
WIRE -64 336 -80 336
WIRE 32 336 0 336
WIRE 352 336 320 336
WIRE 448 336 352 336
WIRE 576 336 448 336
WIRE 672 336 576 336
WIRE 352 352 352 336
WIRE 576 352 576 336
WIRE 672 368 672 336
WIRE -64 432 -80 432
WIRE 32 432 16 432
WIRE 352 432 352 416
WIRE 352 432 320 432
WIRE 448 432 448 416
WIRE 448 432 352 432
WIRE 448 448 448 432
WIRE 576 448 576 416
WIRE 672 480 672 448
WIRE 176 512 176 496
WIRE 448 544 448 528
FLAG 176 512 0
FLAG -208 80 0
FLAG 448 544 0
FLAG 576 448 0
FLAG -80 432 0
FLAG -80 336 0
FLAG 16 144 0
FLAG 448 64 0
FLAG -208 -32 IN
FLAG 672 336 OUT
FLAG 672 480 0
FLAG -96 80 0
SYMBOL LT8631 176 240 R0
SYMATTR InstName U1
SYMBOL voltage -208 -32 R0
WINDOW 123 0 0 Left 2
WINDOW 39 0 0 Left 2
SYMATTR InstName V1
SYMATTR Value {X}
SYMBOL cap 352 64 R0
SYMATTR InstName C1
SYMATTR Value .1µ
SYMBOL ind 352 144 R0
SYMATTR InstName L1
SYMATTR Value 22µ
SYMATTR SpiceLine Rser=10m
SYMBOL res 432 320 R0
SYMATTR InstName R1
SYMATTR Value 1Meg
SYMBOL cap 336 352 R0
SYMATTR InstName C2
SYMATTR Value 4.7p
SYMBOL res 432 432 R0
SYMATTR InstName R2
SYMATTR Value 324K
SYMBOL cap 560 352 R0
SYMATTR InstName C3
SYMATTR Value 47µ
SYMATTR SpiceLine Rser=5m
SYMBOL res 32 416 R90
WINDOW 0 0 56 VBottom 2
WINDOW 3 32 56 VTop 2
SYMATTR InstName R3
SYMATTR Value 25.5K
SYMBOL cap 0 320 R90
WINDOW 0 0 32 VBottom 2
WINDOW 3 32 32 VTop 2
SYMATTR InstName C4
SYMATTR Value .005µ
SYMBOL cap 432 -16 R0
SYMATTR InstName C5
SYMATTR Value 2.2µ
SYMBOL cap -112 -16 R0
SYMATTR InstName C6
SYMATTR Value 2.2µ
SYMBOL load2 672 368 R0
SYMATTR InstName I1
SYMATTR Value {Iload}
TEXT 616 528 Left 2 !.tran 0 2.1m 2m startup
TEXT -392 568 Left 2 ;Note:\n  A smaller SS capacitor is being used to reduce simulation time. See datashet for typical values. \n  If the simulation model is not found please update with the "Sync Release" command from the "Tools" menu.\n  It remains the customer's responsibility to verify proper and reliable operation in the actual application.\n  Component substitution and printed circuit board layout may significantly affect circuit performance or reliability.\n  Contact your local sales representative for assistance. This circuit is distributed to customers only for use with LTC parts.\n  Copyright © 2015 Linear Technology Inc. All rights reserved.
TEXT 176 -56 Bottom 2 ;LT8631 - 100V, 1A Synchronous µPower Step-Down Regulator\nHigh Voltage Buck Converter\nInput: 6.5V to 100V     Output: 5V @ 1A,  Fsw=400KHz
TEXT 664 200 Left 2 !.meas Pin AVG -V(IN)*I(V1)\n.meas Pout AVG V(OUT)*I(I1)\n.meas Eff param Pout/Pin
TEXT 768 320 Left 2 !.step param Iload 0 1.0 .1
TEXT 768 352 Left 2 !.step param X list 12 24 48
